# This file is shared by all PFS simulations
#
# General Settings
#
[General]
preload-ned-files = @@INSTALL_DIR@/lib/ned/hecios_ned.lst
sim-time-limit = 10000s
network = PalmettoMyri10G

#
# Environment settings
#
include @INSTALL_DIR@/ini/global_env.ini

#
# Output settings
#
include @INSTALL_DIR@/ini/global_out_vectors.ini

#
# Run definitions
#
include @INSTALL_DIR@/ini/global_run_configs.ini

#
# Simulation parameters
#
[Parameters]
include @INSTALL_DIR@/ini/palmetto_static_params.ini
include @INSTALL_DIR@/ini/palmetto_myri10g.ini

###############################################################################
#
# Settings for the Beowulf Cluster configuration
#
###############################################################################
**.numCPUNodes = 1
**.numIONodes = 1
**.cpun[*].numProcs = 8

###############################################################################
#
# Settings for the client/end user application
#
#   Note that in the UMD trace filename, "%r" will be replaced with the 
#   application's process rank.
#
###############################################################################
**.mpi.IOApplicationType = "PHTFIOApplication"
**.mpi.app.disableCPUPhase = true
**.mpi.app.isVerbose = false
**.mpi.app.traceFile = ""
#**.mpi.app.traceFile = "/data/traces/phtf/mpi-io-test_64p"
#**.mpi.app.traceFile = "/data/traces/phtf/mpi-io-test_128p"
#**.mpi.app.traceFile = "/data/traces/phtf/mpi-io-test_256p"
#**.mpi.app.traceFile = "/data/traces/phtf/flash-io_8p"
#**.mpi.app.traceFile = "/data/traces/phtf/flash-io_256p"
#**.mpi.app.traceFile = "/data/traces/phtf/flash-io_512p"

###############################################################################
#
# MPI-IO Cache settings
#
###############################################################################
**.mpi.middlewareCacheType = "NoMiddlewareCache"
#**.mpi.middlewareCacheType = "DirectPagedMiddlewareCache"
#**.mpi.middlewareCacheType = "PagedMiddlewareCacheMesi"
#**.mpi.middlewareCacheType = "PagedMiddlewareCacheWithTwinNoBlockIndexed"
#**.mpi.middlewareCacheType = "PagedMiddlewareCacheWithTwin"
#**.mpi.middlewareCacheType = "SharedPagedMiddlewareCacheWithTwinNoBlockIndexed"
#**.mpi.middlewareCacheType = "SharedDirectPagedMiddlewareCache"
#**.mpi.middlewareCacheType = "SharedPagedMiddlewareCacheWithTwin"
**.mpi.cache.pageCapacity = 16
**.mpi.cache.pageSize = 32768

# Note we are assuming we can copy memory at 4GB/s (a reasonable estimate)
**.mpi.cache.byteCopyTime = .00000000023283064365

###############################################################################
#
# Parallel File System Client Configuration settings
#
###############################################################################
**.fsClient.useCollectiveCreate = true
**.fsClient.useCollectiveGetAttr = true
**.fsClient.useCollectiveRemove = true
